/*--------------------------------*- C++ -*----------------------------------*\
| =========                 |                                                 |
| \\      /  F ield         | OpenFOAM: The Open Source CFD Toolbox           |
|  \\    /   O peration     | Version:  4.0                                   |
|   \\  /    A nd           | Web:      www.OpenFOAM.org                      |
|    \\/     M anipulation  |                                                 |
\*---------------------------------------------------------------------------*/
FoamFile
{
    version     2.0;
    format      ascii;
    class       volScalarField;
    object      T;
}
// * * * * * * * * * * * * * * * * * * * * * * * * * * * * * * * * * * * * * //

dimensions      [0 0 0 1 0 0 0];

internalField   uniform 300;//300;

boundaryField
{
    walls
    {
         type            fixedValue;
         value           uniform 300;
//          type externalWallHeatFluxTemperature;
//          q               uniform 1000;
//          Ta              uniform 300.0;
//          h               uniform 10.0;
//          thicknessLayers (0.1 0.2 0.3 0.4);
//          kappaLayers     (1 2 3 4);
//          value           uniform 300.0;
//          Qr              none;
//          relaxation      1;
//          kappaMethod     solidThermo;//      fluidThermo;
//          kappa       none;
//          mode coefficient;
    }

//      inlet
//      {
//          type            fixedValue;
//          value           uniform 0;
//      }

    outlet
    {
        type            zeroGradient;
//         type            fixedValue;
//         value           uniform 300;
    }

     inlet
     {
         type            laserConvection;
         value           uniform 300;
 
         HTCheating      23;//23;
         HTCquenching    15000;//23;
 
         TfH             300;//300;
         TfQ             290;//290;
 
         heatingTime     5e-07;
 
         source1
         {
             power       2;//300;
             spotCenter  (0 0 10);
             normal      (0 1 0);  //- Not used
 
             sigmaX      70e-09;
             sigmaY      70e-09;
 
             correlation 0;
 
              motion
              {
//                    mode    circle;
//                    center  (10 10 0);
//                    omega   10;
//                    nCycles 5;
                   active  true;
   
                   start   0.0;
 
                  mode linear;
                  points
                  {
                    p0  (-2e-07 0 0);
                    p1  (1 0 0);
//                     p2  (0.05 0.02 0);
//                     p3  (0 0.02 0);
                  }
                  linearVelocity 1.6;
              }
         }


        powerReduceName   none;
        kName             k;

         kValue          250;
    }
}

// ************************************************************************* //
